wslexplorer/__init__.py,sha256=hZK_6n0_eGQQK-Gkj7gV3DdWDdmanSgr3akkJmfQAQo,60
wslexplorer/config.py,sha256=-BC1kCUX6tBoiJNoYwXdgxK4q_H65AXnYrydsMtBsKw,1090
wslexplorer/win_explorer.py,sha256=zmGuguOjlbtar172IfPPwD3voEEECFX-5xiQndCywj0,1672
wslexplorer-0.1.2.dist-info/DESCRIPTION.rst,sha256=OCTuuN6LcWulhHS3d5rfjdsQtW22n7HENFRh6jC6ego,10
wslexplorer-0.1.2.dist-info/METADATA,sha256=yWGKS8cfOR_zdTY3GoMGJW9LezdSv6XwMV-2keevGmI,337
wslexplorer-0.1.2.dist-info/RECORD,,
wslexplorer-0.1.2.dist-info/WHEEL,sha256=o2k-Qa-RMNIJmUdIc7KU6VWR_ErNRbWNlxDIpl7lm34,110
wslexplorer-0.1.2.dist-info/entry_points.txt,sha256=eHE-N-B-C56xZI8znjGDBhqZeBBqq-5IAEohALqMaVc,83
wslexplorer-0.1.2.dist-info/metadata.json,sha256=ctRyEaCHMmelLSkOcEugxRMAfHe1H7o1vRusca8Mqpc,717
wslexplorer-0.1.2.dist-info/top_level.txt,sha256=pQyR9KKLQMjljJ7_ttAutrCRehS9BQeWZl3MhUWM7uk,12
